Circuit: * C:\2017-2018\iSIM\Final Project\Band Stop Sallen Key.asc

Direct Newton iteration failed to find .op point.  (Use ".option noopiter" to skip.)
Starting Gmin stepping
Gmin = 10
Gmin = 1.07374
Gmin = 0.115292
Gmin = 0.0123794
Gmin = 0.00132923
Gmin = 0.000142725
Gmin = 1.5325e-005
Gmin = 1.6455e-006
Gmin = 1.76685e-007
Gmin = 1.89714e-008
Gmin = 2.03704e-009
Gmin = 2.18725e-010
Gmin = 2.34854e-011
Gmin = 2.52173e-012
Gmin = 2.70769e-013
Gmin = 0
Gmin stepping succeeded in finding the operating point.


Date: Wed Nov 22 16:46:47 2017
Total elapsed time: 0.064 seconds.

tnom = 27
temp = 27
method = modified trap
totiter = 1130
traniter = 769
tranpoints = 353
accept = 252
rejected = 101
matrix size = 18
fillins = 3
solver = Normal
Matrix Compiler1: 1.01 KB object code size  1.0/0.5/[0.4]
Matrix Compiler2: off  [0.6]/0.8/0.8

