Circuit: * C:\2017-2018\iSIM\Final Project\Band Stop Passive Filter.asc

Direct Newton iteration for .op point succeeded.

Date: Wed Nov 22 22:54:17 2017
Total elapsed time: 0.029 seconds.

tnom = 27
temp = 27
method = trap
totiter = 3
traniter = 0
tranpoints = 0
accept = 0
rejected = 0
matrix size = 16
fillins = 3
solver = Normal
Matrix Compiler1:      47 opcodes
Matrix Compiler2: 1.48 KB object code size
