Circuit: * C:\2017-2018\iSIM\Final Project\Band Stop Passive Filter Pulled Down.asc

Direct Newton iteration for .op point succeeded.

Date: Wed Nov 22 23:09:32 2017
Total elapsed time: 0.043 seconds.

tnom = 27
temp = 27
method = trap
totiter = 3
traniter = 0
tranpoints = 0
accept = 0
rejected = 0
matrix size = 17
fillins = 9
solver = Normal
Matrix Compiler1:      64 opcodes
Matrix Compiler2: 1.74 KB object code size
